           4

 C    2.4364344980775416       -1.0079352626656681        0.0000000000000000     
 O    1.6805479651195034        9.4815006786043449E-003  -0.0000000000000000     
 H    2.0567083626449261       0.92243915699148038        0.0000000000000000     
 H    3.5263092295899892      -0.76398540634079259       -0.0000000000000000     
