           4

 C    2.4399042570062122       -1.0078224622926488       -0.0000000000000000     
 O    1.6795753216711764        6.2514668695256076E-003   0.0000000000000000     
 H    2.0518245717205863       0.92081985152986412       -0.0000000000000000     
 H    3.5286959250339764      -0.75924886744311704        0.0000000000000000     
