           4

 C   -2.9921652759439774       0.19844666031571351        0.0000000000000000     
 O   -4.1194868253701191       0.19844665031571351        0.0000000000000000     
 H    8.4058260733730297      -0.23009746540055753        0.0000000000000000     
 H    8.4058260733730297       -1.0067958465672453        0.0000000000000000     
