           4

 C   -2.9923714259443051       0.19846074031573591        0.0000000000000000     
 O   -4.1196929753704481       0.19846073031573588        0.0000000000000000     
 H    8.4060322433733550      -0.23011176676067027        0.0000000000000000     
 H    8.4060322433733550       -1.0068097052071776        0.0000000000000000     
