    4

C      -2.99216528      0.19844666      0.00000000
O      -4.11948683      0.19844665      0.00000000
H       8.40582607     -0.23009747      0.00000000
H       8.40582607     -1.00679585      0.00000000
    4

C      -2.99216529      0.19844665      0.00000000
O      -4.11948681      0.19844666      0.00000000
H       8.40582607     -0.23009490      0.00000000
H       8.40582607     -1.00679841      0.00000000
    4

C      -2.99216529      0.19844665      0.00000000
O      -4.11948681      0.19844666      0.00000000
H       8.40582607     -0.23009490      0.00000000
H       8.40582607     -1.00679841      0.00000000
    4

C      -2.99216529      0.19844665      0.00000000
O      -4.11948681      0.19844666      0.00000000
H       8.40582607     -0.23009490      0.00000000
H       8.40582607     -1.00679841      0.00000000
    4

C      -2.99216529      0.19844665      0.00000000
O      -4.11948681      0.19844666      0.00000000
H       8.40582607     -0.23009490      0.00000000
H       8.40582607     -1.00679841      0.00000000
    4

C      -2.99216529      0.19844665      0.00000000
O      -4.11948681      0.19844666      0.00000000
H       8.40582607     -0.23009490      0.00000000
H       8.40582607     -1.00679841      0.00000000
    4

C      -2.99216919      0.19845264      0.00000535
O      -4.11949071      0.19845265      0.00000535
H       8.40584068     -0.23009023      0.00000535
H       8.40584068     -1.00679364      0.00000535
    4

C      -2.99221760      0.19845023      0.00000000
O      -4.11953915      0.19845022      0.00000000
H       8.40587839     -0.23010131      0.00000000
H       8.40587839     -1.00679915      0.00000000
