    4

C       2.43643450     -1.00793526      0.00000000
O       1.68054797      0.00948150     -0.00000000
H       2.05670836      0.92243916      0.00000000
H       3.52630923     -0.76398541     -0.00000000
    4

C       2.04464542     -1.00380445     -0.00000000
O       1.97868170     -0.66733275     -0.00000000
H       2.26460760      1.30905764     -0.00000000
H       3.41206533     -0.47792045     -0.00000000
    4

C       2.04464542     -1.00380445     -0.00000000
O       1.97868170     -0.66733275     -0.00000000
H       2.26460760      1.30905764     -0.00000000
H       3.41206533     -0.47792045     -0.00000000
    4

C       2.04464542     -1.00380445     -0.00000000
O       1.97868170     -0.66733275     -0.00000000
H       2.26460760      1.30905764     -0.00000000
H       3.41206533     -0.47792045     -0.00000000
    4

C       2.04464542     -1.00380445     -0.00000000
O       1.97868170     -0.66733275     -0.00000000
H       2.26460760      1.30905764     -0.00000000
H       3.41206533     -0.47792045     -0.00000000
    4

C       2.04464542     -1.00380445     -0.00000000
O       1.97868170     -0.66733275     -0.00000000
H       2.26460760      1.30905764     -0.00000000
H       3.41206533     -0.47792045     -0.00000000
    4

C       2.04570976     -1.00333364      0.00045087
O       1.97896060     -0.66745297      0.00045087
H       2.26419499      1.30922221      0.00045087
H       3.41293818     -0.47663214      0.00045087
    4

C       2.43990426     -1.00782246     -0.00000000
O       1.67957532      0.00625147      0.00000000
H       2.05182457      0.92081985     -0.00000000
H       3.52869593     -0.75924887      0.00000000
