    4

C       2.42420737     -0.21026089      0.00000000
O       1.29173891     -0.58253701     -0.00000000
H       2.70249707      0.85717907     -0.00000000
H       3.28155675     -0.90438118     -0.00000000
    4

C       2.42420623     -0.21026128      0.00000000
O       1.29174051     -0.58253587     -0.00000000
H       2.70249555      0.85718083     -0.00000000
H       3.28155781     -0.90438369     -0.00000000
    4

C       2.42420510     -0.21026167      0.00000000
O       1.29174212     -0.58253472     -0.00000000
H       2.70249403      0.85718258     -0.00000000
H       3.28155886     -0.90438620     -0.00000000
    4

C       2.42420396     -0.21026207      0.00000000
O       1.29174372     -0.58253357     -0.00000000
H       2.70249251      0.85718434     -0.00000000
H       3.28155992     -0.90438871     -0.00000000
    4

C       2.42420282     -0.21026246      0.00000000
O       1.29174532     -0.58253243     -0.00000000
H       2.70249099      0.85718609     -0.00000000
H       3.28156097     -0.90439122     -0.00000000
    4

C       2.42420169     -0.21026285      0.00000000
O       1.29174692     -0.58253128     -0.00000000
H       2.70248947      0.85718785     -0.00000000
H       3.28156203     -0.90439373     -0.00000000
    4

C       2.42420055     -0.21026324      0.00000000
O       1.29174853     -0.58253013     -0.00000000
H       2.70248795      0.85718960     -0.00000000
H       3.28156308     -0.90439624     -0.00000000
    4

C       2.42419942     -0.21026363      0.00000000
O       1.29175013     -0.58252899     -0.00000000
H       2.70248643      0.85719136     -0.00000000
H       3.28156413     -0.90439875     -0.00000000
    4

C       2.42419828     -0.21026402      0.00000000
O       1.29175173     -0.58252784     -0.00000000
H       2.70248491      0.85719311     -0.00000000
H       3.28156519     -0.90440126     -0.00000000
    4

C       2.42419552     -0.21026450     -0.00000000
O       1.29175339     -0.58252703      0.00000000
H       2.70248443      0.85719487      0.00000000
H       3.28156677     -0.90440336      0.00000000
